VERSION 18
*******************************************************************************
*** TRNSYS input file (deck) generated by TRNLIZARD
*** created by: vhoang
*** date: Fri Nov 10 12:16:22 2017
*** variant: Basis
*******************************************************************************


*******************************************************************************
*** Control cards
*******************************************************************************
* START, STOP and STEP
CONSTANTS 3
START =0.0
STOP  =8760.0
STEP  =0.25


SIMULATION 	 START	 STOP	 STEP	! Start time	End time	Time step
TOLERANCES 0.001 0.001			! Integration	 Convergence
LIMITS 50 300 302				! Max iterations	Max warnings	Trace limit
DFQ 1					! TRNSYS numerical integration solver method
WIDTH 72				! TRNSYS output file width, number of characters
LIST 					! NOLIST statement
					! MAP statement
SOLVER 0 1 1				! Solver statement	Minimum relaxation factor	Maximum relaxation factor
NAN_CHECK 0				! Nan DEBUG statement
OVERWRITE_CHECK 0			! Overwrite DEBUG statement
TIME_REPORT 0			! enable time report statement
EQSOLVER 0				! EQUATION SOLVER statement
* User defined CONSTANTS 





*------------------------------------------------------------------------------
* EQUATIONS "Azimuth Angles"
* 
EQUATIONS 4
AZEN   = [15,16]
AAZM   = [15,17]
AHEI   = max(90 - AZEN,0)
AZ_T56 = AAZM
*$UNIT_NAME Azimuth Angles
*$LAYER Main
*$POSITION 230 31
*$UNIT_NUMBER 1


*------------------------------------------------------------------------------

* Model "Type15-10" (Type 15)
* 

UNIT 15 TYPE 15	 Type15-10
*$UNIT_NAME Type15-10
*$MODEL .\Weather Data Reading and Processing\Standard Format\German TRY 2015\Type15-10.tmf
*$POSITION 330 31
*$LAYER Weather - Data Files # 
PARAMETERS 9
10		! 1 File Type
36		! 2 Logical unit
5		! 3 Tilted Surface Radiation Mode
GRDREF		! 4 Ground reflectance - no snow
0.2		! 5 Ground reflectance - snow cover
1		! 6 Number of surfaces
1		! 7 Tracking mode
0.0		! 8 Slope of surface
0		! 9 Azimuth of surface

*** External files
ASSIGN "TRY2015_39435002443500_Jahr.dat" 36
*|? Weather data file |1000

*-------------------------------------------------------------------------------
* Model "24h mean" (Type 127)
* 
UNIT 27 TYPE 127	 24h mean
*$UNIT_NAME 24h mean
*$MODEL .\Nostand\Type127\TYPE127.tmf
*$POSITION 430 31
*$LAYER Main # 
PARAMETERS 3
0		! 1 start time mean value
24		! 2 stop time mean value
5		! 3 initial value of temperature
INPUTS 1
Tamb		! [equation] input value
*** INITIAL INPUT VALUES
5 

*------------------------------------------------------------------------------
* Model "Type33e-3" (Type 33)
* 
UNIT 33 TYPE 33	 Type33e-3
*$UNIT_NAME Type33e-3
*$MODEL .\Physical Phenomena\Thermodynamic Properties\Psychrometrics\Dry Bulb and Relative Humidity Known\Type33e.tmf
*$POSITION 530 31
*$LAYER Main # 
PARAMETERS 3
2		! 1 Psychrometrics mode
1		! 2 Wet bulb mode
1		! 3 Error mode
INPUTS 3
Tamb		! Environmental:Tamb ->Dry bulb temp.
15,7 		! Type99-2:relative humidity ->Percent relative humidity
pamb_atm		! [unconnected] Pressure
*** INITIAL INPUT VALUES
20 50 1 


*------------------------------------------------------------------------------
* Model "Type69b-2" (Type 69)
* 
UNIT 69 TYPE 69	 Type69b-2
*$UNIT_NAME Type69b-2
*$MODEL .\Physical Phenomena\Sky Temperature\calculate cloudiness factor\Type69b.tmf
*$POSITION 630 31
*$LAYER Main # # 
PARAMETERS 2
0		! 1 mode for cloudiness factor
490.0		! 2 height over sea level
INPUTS 4
Tamb		! Environmental:Tamb ->Ambient temperature
33,8 		! Type33e-3:Dew point temperature. ->Dew point temperature at ambient conditions
15,19 		! Type99-2:beam radiation on horitonzal ->Beam radiation on the horizontal
15,20 		! Type99-2:sky diffuse radiation on horizontal ->Diffuse radiation on the horizontal
*** INITIAL INPUT VALUES
0 0 0 0 

*------------------------------------------------------------------------------
* EQUATIONS "Environmental"
* 
EQUATIONS 38
GRDREF       = 0.2 
Rh_amb       = [33,6]
Abshum_amb   = [33,1]
X_amb        = Abshum_amb * 1000
Twb          = [33,2]
Tdp_amb      = [33,8]
Tamb         = [15,1]
Tfloat       = max( min( 27, (Tamb/3+49/3) ), 25)
Tsoil        = 9 - 8 * COS(360/365*(TIME/24 - 226.25))
Tamb_m24     = [27,1]
Tamb_g24     = [27,3]
Tsky         = [69,1]
Abshum_earthd= Abshum_amb
cpAir        = 1.012
cpH2o        = 4.18 ! specific heat capacity waterr [kJ/kg/K]
cpGlyk       = 3.81 ! specific heat capacity water / glycol Antifrogen N 25 % [kg/m³]
VapEnt       = 2454
rhoAir       = 1.204
rhoH2O       = 1000 ! desity water [kg/m³]
rhoW         = 1000 ! desity water [kg/m³]
rhoGlyk      = 1047 ! density                water / glycol Antifrogen N 25 % [kg/m³]
Zero         = 0
Totarea      = 0
DAYTIME      = mod(TIME,24)
WINDVEL      = [15,8]
WINDDIR      = [15,9]  
pamb_abs     = 101325  
pamb_bar     = pamb_abs / 100000
pamb_atm     = pamb_bar * 0.98692
CCONAMB_1    = 0.000656  
CCONAMB_2    = 0 
CCONAMB_3    = 0 
CCONAMB_4    = 0 
CCONAMB_5    = 0
TRNFLOW      = 0    !* NOT(GT(DAYTIME,8)*LT(DAYTIME,20))
showonline = 0
CO2_amb = 330 !Volppm
CO2_ppers = 20 !l/h

*$UNIT_NAME Environmental
*$LAYER Main
*$POSITION 730 31
*$UNIT_NUMBER 2

*------------------------------------------------------------------------------
* EQUATIONS "Pre. Def Comfort"
* 
EQUATIONS 6
T15251NAU = max(min((18 + 0.25 * Tamb),26),22) + 2  ! upper temperature limit according to DIN EN 15251 National Appendix category II
T15251NAL = max(min((18 + 0.25 * Tamb),26),22) - 2  ! upper temperature limit according to DIN EN 15251 National Appendix category II
T15251ADIIU = max((18.8 + 0.33 * Tamb_g24 + 3),26)  ! upper temperature limit according to DIN EN 15251 adaptive comfort category II
T15251ADIIL = max((18.8 + 0.33 * Tamb_g24 - 3),20)  ! upper temperature limit according to DIN EN 15251 adaptive comfort category II
T15251ENIIU = 26  ! upper temperature limit according to DIN EN 15251 active cooled category II
T15251ENIIL = 20  ! upper temperature limit according to DIN EN 15251 active cooled category II

*$UNIT_NAME Comfort
*$LAYER Main
*$POSITION 830 31
*$UNIT_NUMBER 3

*------------------------------------------------------------------------------
* EQUATIONS "Solar"
* 
EQUATIONS 44
Placeholder = 0
IT_H = [15,18]/3.6
IT_N_142_90 = IT_S6/(3.6*AREA_S6+0.00000001)
IB_N_142_90 = IB_S6/(3.6*AREA_S6+0.00000001)
ID_N_142_90 = ID_S6/(3.6*AREA_S6+0.00000001)
IT_S_322_89 = IT_S5/(3.6*AREA_S5+0.00000001)
IB_S_322_89 = IB_S5/(3.6*AREA_S5+0.00000001)
ID_S_322_89 = ID_S5/(3.6*AREA_S5+0.00000001)
IT_H_0_0 = IT_S3/(3.6*AREA_S3+0.00000001)
IB_H_0_0 = IB_S3/(3.6*AREA_S3+0.00000001)
ID_H_0_0 = ID_S3/(3.6*AREA_S3+0.00000001)
IT_W_52_29 = IT_S2/(3.6*AREA_S2+0.00000001)
IB_W_52_29 = IB_S2/(3.6*AREA_S2+0.00000001)
ID_W_52_29 = ID_S2/(3.6*AREA_S2+0.00000001)
IT_E_232_29 = IT_S1/(3.6*AREA_S1+0.00000001)
IB_E_232_29 = IB_S1/(3.6*AREA_S1+0.00000001)
ID_E_232_29 = ID_S1/(3.6*AREA_S1+0.00000001)
IT_S_322_90 = IT_S45/(3.6*AREA_S45+0.00000001)
IB_S_322_90 = IB_S45/(3.6*AREA_S45+0.00000001)
ID_S_322_90 = ID_S45/(3.6*AREA_S45+0.00000001)
IT_N_142_89 = IT_S44/(3.6*AREA_S44+0.00000001)
IB_N_142_89 = IB_S44/(3.6*AREA_S44+0.00000001)
ID_N_142_89 = ID_S44/(3.6*AREA_S44+0.00000001)
IT_W_52_35 = IT_S36/(3.6*AREA_S36+0.00000001)
IB_W_52_35 = IB_S36/(3.6*AREA_S36+0.00000001)
ID_W_52_35 = ID_S36/(3.6*AREA_S36+0.00000001)
IT_E_232_35 = IT_S35/(3.6*AREA_S35+0.00000001)
IB_E_232_35 = IB_S35/(3.6*AREA_S35+0.00000001)
ID_E_232_35 = ID_S35/(3.6*AREA_S35+0.00000001)
IT_H_0_180 = IT_S57/(3.6*AREA_S57+0.00000001)
IB_H_0_180 = IB_S57/(3.6*AREA_S57+0.00000001)
ID_H_0_180 = ID_S57/(3.6*AREA_S57+0.00000001)
IT_E_232_89 = IT_S13/(3.6*AREA_S13+0.00000001)
IB_E_232_89 = IB_S13/(3.6*AREA_S13+0.00000001)
ID_E_232_89 = ID_S13/(3.6*AREA_S13+0.00000001)
IT_E_232_13 = IT_S7/(3.6*AREA_S7+0.00000001)
IB_E_232_13 = IB_S7/(3.6*AREA_S7+0.00000001)
ID_E_232_13 = ID_S7/(3.6*AREA_S7+0.00000001)
IT_W_52_89 = IT_S26/(3.6*AREA_S26+0.00000001)
IB_W_52_89 = IB_S26/(3.6*AREA_S26+0.00000001)
ID_W_52_89 = ID_S26/(3.6*AREA_S26+0.00000001)
IT_W_52_13 = IT_S21/(3.6*AREA_S21+0.00000001)
IB_W_52_13 = IB_S21/(3.6*AREA_S21+0.00000001)
ID_W_52_13 = ID_S21/(3.6*AREA_S21+0.00000001)


*$UNIT_NAME Solar
*$LAYER Main
*$POSITION 930 31
*$UNIT_NUMBER 4

*------------------------------------------------------------------------------
* EQUATIONS "UserDefinedOutputNames"


*$UNIT_NAME UserDefinedOutputNames
*$LAYER Main
*$POSITION 1030 31
*$UNIT_NUMBER 5


*------------------------------------------------------------------------------
* EQUATIONS "Zone"
* 
EQUATIONS 26
Ht_bui_A1            = 1000 * 3.6 * Area_A1 * (LT(Tamb_m24,12))
 Cl_bui_A1           = 1000 * 3.6 * Area_A1 * (GT(Tamb_m24,12))
Area_A1              = 483.9
Totarea_A1           = 0.0
Vol_A1               = 539.4
Tset_cl_A1	         = 26
Tset_ht_A1           = 20
Tset_cl_red_A1       = (gt(0,0)-1)*Min(-0,0) + Tset_cl_A1
Tset_ht_red_A1       = (gt(0,0)-1)*Max( 0,0) + Tset_ht_A1
Tair_set_cl_A1       = (0 * (Tair_A1+2*(Tset_cl_red_A1 -0.2 - Top_A1)) + Not(0)*(Tset_cl_red_A1-0.2))
Tair_set_ht_A1       = (0 * (Tair_A1+2*(Tset_ht_red_A1 +0.2 - Top_A1)) + Not(0)*(Tset_ht_red_A1+0.2))
Tlair_A1             = [101,2]
Twb_A1         = TAIR_WB_A1
Tdp_A1         = TAIR_DP_A1
Tearthd_A1     = TAMB + 0/100 * (Tsoil-Tamb)
Tclo_A1              = 32
Abshuml_A1           = [101,6]
vflow_A1             = max(max(max(max(ACR_inf_A1,ACR_ahu_hv_A1),ACR_ahu_mv_A1),ACR_sv1_A1),ACR_sv2_A1)*(Vol_A1+0.0000001) / 4000 / 3600
ACR_tot_A1           = ACR_inf_A1 + ACR_ahu_hv_A1 + ACR_ahu_mv_A1 + ACR_sv1_A1 + ACR_sv2_A1
ACR_inf_A1           = max(0.0 * SCHED_ALLDAY, 0.5)
Y_inf_A1           = gt(ACR_inf_A1, 0.5)
X_A1           = ABSHUM_A1 * 1000
Rh_A1          = RELHUM_A1
CO2l_A1           = [101,8]
Gpers_A1 = CO2_ppers * Area_A1 / 10.0 * SCHED_HALL * 1 / Vol_A1 / 1000 * 1000000
CO2_A1 = (CO2l_A1 - CO2_amb - Gpers_A1 / ACR_tot_A1) * exp(-ACR_tot_A1*STEP) + CO2_amb + Gpers_A1 / ACR_tot_A1

*$UNIT_NAME Zone definitions
*$LAYER Main
*$POSITION 230 130
*$UNIT_NUMBER 120

*------------------------------------------------------------------------------
* EQUATIONS "Active Layer"
* 
EQUATIONS 8
Tsup_al_A1      = 0
Tsurf_al_A1     = 0
Tout_al_A1      = 0
Tcl_on_al_A1    = 2
Tcl_off_al_A1   = 0
Tht_on_al_A1    = - 0
Tht_off_al_A1   = - 2 
Tnode_al_A1     = 0

*$UNIT_NAME Active Layer
*$LAYER Main
*$POSITION 230 180
*$UNIT_NUMBER 121

*------------------------------------------------------------------------------
* EQUATIONS "MechanicalVentilation"
*
EQUATIONS 10
ACR_ahu_mv_A1  = 0
ACR_ahu_hv_A1  = 0
Tin_hrc_A1     = 0
Tsup_mv_A1     = 0
Text_A1        = 0
Thrc_A1        = 0
mflow_sup_A1   = 0
Abshum_sup_mv_A1 = 0
X_mv_A1        = 0
Rh_sup_mv_A1   = 0

*$UNIT_NAME AHU
*$LAYER Main
*$POSITION 230 230
*$UNIT_NUMBER 122

*------------------------------------------------------------------------------
* EQUATIONS "Stack Ventilation"
* 
EQUATIONS 13
sched_sv_A1 = gt(0,0)
Hdifopen_A1 = max(1 * sched_sv_A1,1 * not(sched_sv_A1))
Aopentop_A1 = max(1 * sched_sv_A1,1 * not(sched_sv_A1))
Aopenbot_A1 = max(1 * sched_sv_A1,1 * not(sched_sv_A1))
y_dfl_A1 = GT(Tamb,12) * GT(Tamb_m24,12) * sched_sv_A1 * max(not(0),[106,1])
y_nfl_A1 = GT(Tamb,1000) * GT(Tamb_m24,1000) * not(sched_sv_A1) * max(not(0),[106,1])
ACR_sv_max_A1 = max(5 * sched_sv_A1,5 * not(sched_sv_A1))
ACR_sv1_A1   = [104,1] * sched_sv_A1
ACR_sv2_A1   = [104,1] * not(sched_sv_A1)
MF_sv1_A1    = rhoAir * [104,2] * sched_sv_A1
MF_sv2_A1    = rhoAir * [104,2] * not(sched_sv_A1)
Y_sv1_A1   = gt(ACR_sv1_A1,0)
Y_sv2_A1   = gt(ACR_sv2_A1,0)

*$UNIT_NAME Stack Ventilation
*$LAYER Main
*$POSITION 230 280
*$UNIT_NUMBER 123

*------------------------------------------------------------------------------
* EQUATIONS "Shading"
* 
EQUATIONS 6 
Tshd_on_A1     = -20
Tshd_off_A1	   = TSHD_ON_A1 - 2
Yshd_temp_A1   = [111,1]
SHD_active_A1	 = 0 * Yshd_temp_A1
SHD_activeA_A1	 = 0 * Yshd_temp_A1
SHD_activeB_A1	 = 0 * Yshd_temp_A1


*$UNIT_NAME Shading
*$LAYER Main
*$POSITION 230 330
*$UNIT_NUMBER 124

*------------------------------------------------------------------------------
* EQUATIONS "Artificial Lighting"
* 
EQUATIONS 9 
Q_light_kJ_A1  =  14.0 * 3.6
area_dlc1_A1 = AREADLC1_A1 ! Floor area related to 1st daylight controlled gain [m²]
illum_dlc1_A1 = ILLUMDLC1_A1 ! Daylight illuminance of 1st daylight controlled gain [lux]
illset_dlc1_A1 = ILLSETDLC1_A1 ! Illuminance set point of 1st daylight controlled gain [lux]
mode_dlc1_A1 = MODEDLC1_A1 ! Lighting control type of 1st daylight controlled gain (1...always on, 2...on/off, 3...continuous, 4...continuous on/off)
fdim_dlc1_A1 = FDIMDLC1_A1 ! dimming fraction of 1st daylight controlled gain [-]
cda_dlc1_A1 = CDADLC1_A1 ! Continuous daylight autonomy  of 1st daylight controlled gain [-]
da_dlc1_A1 = DADLC1_A1 ! Daylight autonomie of 1st daylight controlled gain [-]
udi_dlc1_A1 = UDIDLC1_A1 ! Useful daylight illuminance of 1st daylight controlled gain [-]

*$UNIT_NAME Artificial Lighting
*$LAYER Main
*$POSITION 230 380
*$UNIT_NUMBER 125

*------------------------------------------------------------------------------
* EQUATIONS "DHW"
* 
EQUATIONS 4 
Tcw_A1       = 14
Thw_A1       = 45
Tdhw_diff_A1 = Thw_A1 - Tcw_A1
Mfdhw_A1     = 0 * 0 / 1 * 0

*$UNIT_NAME DHW
*$LAYER Main
*$POSITION 230 430
*$UNIT_NUMBER 126

*------------------------------------------------------------------------------
* EQUATIONS "Occupation Results"
* 
EQUATIONS 4
OCCUPATION_A1 = gt(SCHED_HALL,0)
ATop_A1       = Top_A1 * OCCUPATION_A1
ATair_A1      = Tair_A1 * OCCUPATION_A1
Arh_A1        = rh_A1 * OCCUPATION_A1
*$UNIT_NAME Occupation Results
*$LAYER Main
*$POSITION 230 480
*$UNIT_NUMBER 127


*------------------------------------------------------------------------------
* EQUATIONS "Zone Specific Power Inputs"
* 
EQUATIONS 3
Q_pers_kJ_A1    = ( 0.0 * (1 - lt(Tamb_m24,12.0 ) * 0.0)) * 3.6
Q_comp_kJ_A1    = ( 0 * (1 - lt(Tamb_m24,12.0 ) * 0)) * 3.6
Q_addon_KJ_A1   = ( (0+(Q_solair_A2 * Area_A2 + Q_solair_A3 * Area_A3) / Area_A1) * (1 - lt(Tamb_m24,12.0 ) * 0)) * 3.6
*$UNIT_NAME Specific Power Inputs
*$LAYER Main
*$POSITION 230 530
*$UNIT_NUMBER 128


*------------------------------------------------------------------------------
* EQUATIONS "Zone Specific Outputs"
* 
EQUATIONS 60
Q_people_A1 = QGPEOPLE_A1 / Area_A1 / 3.6
Q_heat_A1       = -1 * MIN(0,QSENS_A1 / 3.6) / Area_A1
Q_cool_A1       = MAX(0,QSENS_A1 / 3.6) / Area_A1
Q_sen_A1        = QSENS_A1 / 3.6 / Area_A1
Q_inf_A1        = QINF_A1 / 3.6 / Area_A1
Q_vent_A1       = QVENT_A1 / 3.6 / Area_A1
Q_vent_sup_A1	  = MAX(Q_vent_A1,0)
Q_vent_ex_A1    = MIN(Q_vent_A1,0)
Q_conv_A1	      = QGCONV_A1 / 3.6 / Area_A1 - 0.5 * Q_thb_A1
Q_light_A1 = QGLIGHT_A1 / Area_A1 / 3.6
Q_equip_A1 = QGEQUIP_A1 / Area_A1 / 3.6
Q_misc_A1 = QGMISC_A1 / Area_A1 / 3.6
Q_thb_A1 = QGTHB_A1 / Area_A1 / 3.6
Q_lat_A1        = QLATD_A1 / 3.6 / Area_A1
Q_lat_dh_A1     = MAX(Q_lat_A1,0)
Q_lat_hu_A1     = - MIN(Q_lat_A1,0)
Q_soltr_A1      = QSOLTR_A1 / 3.6 / Area_A1
Q_surf_wall_A1  = -( QABSI_S5 - QCOMI_S5+QABSI_S6 - QCOMI_S6 ) / 3.6 / Area_A1
Q_surf_win_A1   = -( 0 ) / 3.6 / Area_A1
Q_surf_floor_A1  = -( 0 ) / 3.6 / Area_A1
Q_surf_ceiling_A1   = -( 0 ) / 3.6 / Area_A1
Q_surf_roof_A1   = -( QABSI_S1 - QCOMI_S1+QABSI_S2 - QCOMI_S2+QABSI_S3 - QCOMI_S3 ) / 3.6 / Area_A1
Q_surf_A1       = Q_surf_wall_A1 + Q_surf_win_A1 + Q_surf_floor_A1 + Q_surf_ceiling_A1 + Q_surf_roof_A1
Q_solabs_wall_A1  = ( QSIAB_S5+QSIAB_S6 ) / 3.6 / Area_A1
Q_solabs_win_A1   = ( 0 ) / 3.6 / Area_A1
Q_solabs_floor_A1  = ( 0 ) / 3.6 / Area_A1
Q_solabs_ceiling_A1   = ( 0 ) / 3.6 / Area_A1
Q_solabs_roof_A1   = ( QSIAB_S1+QSIAB_S2+QSIAB_S3 ) / 3.6 / Area_A1
Q_solabs_A1       = Q_solabs_wall_A1 + Q_solabs_win_A1 + Q_solabs_floor_A1 + Q_solabs_ceiling_A1 + Q_solabs_roof_A1
Q_coup_A1       = QCOUP_A1 / 3.6 / Area_A1
Q_solair_A1     = QSOLAIR_A1 / 3.6 / Area_A1
Q_rad_A1        = QGRAD_A1 / 3.6 / Area_A1 - 0.5 * Q_thb_A1
Q_intgain_A1    = Q_conv_A1 + Q_rad_A1
Q_al_A1         = (0) / 3.6 / Area_A1
Q_al_cl_A1      = MAX(Q_al_A1,0)
Q_al_ht_A1      = - MIN(Q_al_A1,0)
Q_al_el_A1      = abs(0.01*Q_al_A1)
Q_alsrf_A1      = (0) / 3.6 / Area_A1
Q_dhw_A1        = ( Mfdhw_A1 * 1.16667 * Tdhw_diff_A1) / Area_A1
Q_ahu_sen_ht_A1 = 0
Q_ahu_sen_cl_A1 = 0
Q_ahu_lat_hu_A1 = 0
Q_ahu_lat_dh_A1 = 0
Q_ahu_sen_dh_cl_A1 = 0 
Q_ahu_dh_cl_A1 = Q_ahu_lat_dh_A1 + Q_ahu_sen_dh_cl_A1
Q_ahu_sen_dh_ht_A1 = 0 
Q_hrc_sen_cl_A1 = 0
Q_hrc_sen_ht_A1 = 0
Q_earthd_ht_A1  = MAX(mflow_sup_A1 * cpAir * (Tearthd_A1 - Tamb), 0) / Area_A1 / 3.6  ! W/m²
Q_earthd_cl_A1  = -MIN(mflow_sup_A1 * cpAir * (Tearthd_A1 - Tamb), 0) / Area_A1 / 3.6  ! W/m²
*Q_ahu_el_A1     = 1  * mflow_sup_A1 / rhoAir / Area_A1
Q_light_el_A1 = QELLIGHT_A1 / Area_A1 / 3.6
Q_equip_el_A1 = QELEQUIP_A1 / Area_A1 / 3.6
Q_misc_el_A1 = QELMISC_A1 / Area_A1 / 3.6
Q_heat_el_A1 = QELHEAT_A1 / Area_A1 / 3.6
Q_cool_el_A1 = QELCOOL_A1 / Area_A1 / 3.6
Q_vent_el_A1 = QELVENT_A1 / Area_A1 / 3.6
Q_ahu_el_A1     = Q_vent_el_A1
Q_tot_ht_A1     = Q_heat_A1 + Q_lat_hu_A1 + Q_al_ht_A1 + Q_dhw_A1 + Q_ahu_sen_ht_A1 + Q_ahu_lat_hu_A1 + Q_ahu_sen_dh_ht_A1
Q_tot_cl_A1     = Q_cool_A1 + Q_lat_dh_A1 + Q_al_cl_A1 + Q_ahu_sen_cl_A1 + Q_ahu_dh_cl_A1
Q_tot_el_A1     = Q_light_el_A1 + Q_equip_el_A1 + Q_misc_el_A1 + Q_ahu_el_A1 + Q_al_el_A1 + Q_heat_el_A1 + Q_cool_el_A1

*$UNIT_NAME Specific Power
*$LAYER Main
*$POSITION 330 130
*$UNIT_NUMBER 129

*------------------------------------------------------------------------------
* EQUATIONS "Zone"
* 
EQUATIONS 26
Ht_bui_A2            = 1000 * 3.6 * Area_A2 * (LT(Tamb_m24,12))
 Cl_bui_A2           = 1000 * 3.6 * Area_A2 * (GT(Tamb_m24,12))
Area_A2              = 696.9
Totarea_A2           = 0.0
Vol_A2               = 2011.8
Tset_cl_A2	         = 26
Tset_ht_A2           = 20
Tset_cl_red_A2       = (gt(0,0)-1)*Min(-0,0) + Tset_cl_A2
Tset_ht_red_A2       = (gt(0,0)-1)*Max( 0,0) + Tset_ht_A2
Tair_set_cl_A2       = (0 * (Tair_A2+2*(Tset_cl_red_A2 -0.2 - Top_A2)) + Not(0)*(Tset_cl_red_A2-0.2))
Tair_set_ht_A2       = (0 * (Tair_A2+2*(Tset_ht_red_A2 +0.2 - Top_A2)) + Not(0)*(Tset_ht_red_A2+0.2))
Tlair_A2             = [131,2]
Twb_A2         = TAIR_WB_A2
Tdp_A2         = TAIR_DP_A2
Tearthd_A2     = TAMB + 0/100 * (Tsoil-Tamb)
Tclo_A2              = 32
Abshuml_A2           = [131,6]
vflow_A2             = max(max(max(max(ACR_inf_A2,ACR_ahu_hv_A2),ACR_ahu_mv_A2),ACR_sv1_A2),ACR_sv2_A2)*(Vol_A2+0.0000001) / 4000 / 3600
ACR_tot_A2           = ACR_inf_A2 + ACR_ahu_hv_A2 + ACR_ahu_mv_A2 + ACR_sv1_A2 + ACR_sv2_A2
ACR_inf_A2           = max(0.0 * SCHED_ALLDAY, 0.5)
Y_inf_A2           = gt(ACR_inf_A2, 0.5)
X_A2           = ABSHUM_A2 * 1000
Rh_A2          = RELHUM_A2
CO2l_A2           = [131,8]
Gpers_A2 = CO2_ppers * Area_A2 / 1.38 * SCHED_HALL * 1 / Vol_A2 / 1000 * 1000000
CO2_A2 = (CO2l_A2 - CO2_amb - Gpers_A2 / ACR_tot_A2) * exp(-ACR_tot_A2*STEP) + CO2_amb + Gpers_A2 / ACR_tot_A2

*$UNIT_NAME Zone definitions
*$LAYER Main
*$POSITION 430 130
*$UNIT_NUMBER 150

*------------------------------------------------------------------------------
* EQUATIONS "Active Layer"
* 
EQUATIONS 8
Tsup_al_A2      = 0
Tsurf_al_A2     = 0
Tout_al_A2      = 0
Tcl_on_al_A2    = 2
Tcl_off_al_A2   = 0
Tht_on_al_A2    = - 0
Tht_off_al_A2   = - 2 
Tnode_al_A2     = 0

*$UNIT_NAME Active Layer
*$LAYER Main
*$POSITION 430 180
*$UNIT_NUMBER 151

*------------------------------------------------------------------------------
* EQUATIONS "MechanicalVentilation"
*
EQUATIONS 10
ACR_ahu_mv_A2  = 0
ACR_ahu_hv_A2  = 0
Tin_hrc_A2     = 0
Tsup_mv_A2     = 0
Text_A2        = 0
Thrc_A2        = 0
mflow_sup_A2   = 0
Abshum_sup_mv_A2 = 0
X_mv_A2        = 0
Rh_sup_mv_A2   = 0

*$UNIT_NAME AHU
*$LAYER Main
*$POSITION 430 230
*$UNIT_NUMBER 152

*------------------------------------------------------------------------------
* EQUATIONS "Stack Ventilation"
* 
EQUATIONS 13
sched_sv_A2 = gt(0,0)
Hdifopen_A2 = max(1 * sched_sv_A2,1 * not(sched_sv_A2))
Aopentop_A2 = max(1 * sched_sv_A2,1 * not(sched_sv_A2))
Aopenbot_A2 = max(1 * sched_sv_A2,1 * not(sched_sv_A2))
y_dfl_A2 = GT(Tamb,12) * GT(Tamb_m24,12) * sched_sv_A2 * max(not(0),[136,1])
y_nfl_A2 = GT(Tamb,1000) * GT(Tamb_m24,1000) * not(sched_sv_A2) * max(not(0),[136,1])
ACR_sv_max_A2 = max(5 * sched_sv_A2,5 * not(sched_sv_A2))
ACR_sv1_A2   = [134,1] * sched_sv_A2
ACR_sv2_A2   = [134,1] * not(sched_sv_A2)
MF_sv1_A2    = rhoAir * [134,2] * sched_sv_A2
MF_sv2_A2    = rhoAir * [134,2] * not(sched_sv_A2)
Y_sv1_A2   = gt(ACR_sv1_A2,0)
Y_sv2_A2   = gt(ACR_sv2_A2,0)

*$UNIT_NAME Stack Ventilation
*$LAYER Main
*$POSITION 430 280
*$UNIT_NUMBER 153

*------------------------------------------------------------------------------
* EQUATIONS "Shading"
* 
EQUATIONS 6 
Tshd_on_A2     = 18.0
Tshd_off_A2	   = TSHD_ON_A2 - 2
Yshd_temp_A2   = [141,1]
SHD_active_A2	 = gt(0+ SHADCNTRL_S53+ SHADCNTRL_S54+ SHADCNTRL_S55+ SHADCNTRL_S52,0) * Yshd_temp_A2
SHD_activeA_A2	 = gt(0+ SHADCNTRL_S53+ SHADCNTRL_S54+ SHADCNTRL_S55+ SHADCNTRL_S52,0) * Yshd_temp_A2
SHD_activeB_A2	 = gt(0,0) * Yshd_temp_A2


*$UNIT_NAME Shading
*$LAYER Main
*$POSITION 430 330
*$UNIT_NUMBER 154

*------------------------------------------------------------------------------
* EQUATIONS "Artificial Lighting"
* 
EQUATIONS 9 
Q_light_kJ_A2  =  10 * 3.6
area_dlc1_A2 = AREADLC1_A2 ! Floor area related to 1st daylight controlled gain [m²]
illum_dlc1_A2 = ILLUMDLC1_A2 ! Daylight illuminance of 1st daylight controlled gain [lux]
illset_dlc1_A2 = ILLSETDLC1_A2 ! Illuminance set point of 1st daylight controlled gain [lux]
mode_dlc1_A2 = MODEDLC1_A2 ! Lighting control type of 1st daylight controlled gain (1...always on, 2...on/off, 3...continuous, 4...continuous on/off)
fdim_dlc1_A2 = FDIMDLC1_A2 ! dimming fraction of 1st daylight controlled gain [-]
cda_dlc1_A2 = CDADLC1_A2 ! Continuous daylight autonomy  of 1st daylight controlled gain [-]
da_dlc1_A2 = DADLC1_A2 ! Daylight autonomie of 1st daylight controlled gain [-]
udi_dlc1_A2 = UDIDLC1_A2 ! Useful daylight illuminance of 1st daylight controlled gain [-]

*$UNIT_NAME Artificial Lighting
*$LAYER Main
*$POSITION 430 380
*$UNIT_NUMBER 155

*------------------------------------------------------------------------------
* EQUATIONS "DHW"
* 
EQUATIONS 4 
Tcw_A2       = 14
Thw_A2       = 45
Tdhw_diff_A2 = Thw_A2 - Tcw_A2
Mfdhw_A2     = 0 * 0 / 1 * 0

*$UNIT_NAME DHW
*$LAYER Main
*$POSITION 430 430
*$UNIT_NUMBER 156

*------------------------------------------------------------------------------
* EQUATIONS "Occupation Results"
* 
EQUATIONS 4
OCCUPATION_A2 = gt(SCHED_HALL,0)
ATop_A2       = Top_A2 * OCCUPATION_A2
ATair_A2      = Tair_A2 * OCCUPATION_A2
Arh_A2        = rh_A2 * OCCUPATION_A2
*$UNIT_NAME Occupation Results
*$LAYER Main
*$POSITION 430 480
*$UNIT_NUMBER 157


*------------------------------------------------------------------------------
* EQUATIONS "Zone Specific Power Inputs"
* 
EQUATIONS 3
Q_pers_kJ_A2    = ( 0.0 * (1 - lt(Tamb_m24,12.0 ) * 0.0)) * 3.6
Q_comp_kJ_A2    = ( 0 * (1 - lt(Tamb_m24,12.0 ) * 0)) * 3.6
Q_addon_KJ_A2   = ( (0+- Q_solair_A2) * (1 - lt(Tamb_m24,12.0 ) * 0)) * 3.6
*$UNIT_NAME Specific Power Inputs
*$LAYER Main
*$POSITION 430 530
*$UNIT_NUMBER 158


*------------------------------------------------------------------------------
* EQUATIONS "Zone Specific Outputs"
* 
EQUATIONS 60
Q_people_A2 = QGPEOPLE_A2 / Area_A2 / 3.6
Q_heat_A2       = -1 * MIN(0,QSENS_A2 / 3.6) / Area_A2
Q_cool_A2       = MAX(0,QSENS_A2 / 3.6) / Area_A2
Q_sen_A2        = QSENS_A2 / 3.6 / Area_A2
Q_inf_A2        = QINF_A2 / 3.6 / Area_A2
Q_vent_A2       = QVENT_A2 / 3.6 / Area_A2
Q_vent_sup_A2	  = MAX(Q_vent_A2,0)
Q_vent_ex_A2    = MIN(Q_vent_A2,0)
Q_conv_A2	      = QGCONV_A2 / 3.6 / Area_A2 - 0.5 * Q_thb_A2
Q_light_A2 = QGLIGHT_A2 / Area_A2 / 3.6
Q_equip_A2 = QGEQUIP_A2 / Area_A2 / 3.6
Q_misc_A2 = QGMISC_A2 / Area_A2 / 3.6
Q_thb_A2 = QGTHB_A2 / Area_A2 / 3.6
Q_lat_A2        = QLATD_A2 / 3.6 / Area_A2
Q_lat_dh_A2     = MAX(Q_lat_A2,0)
Q_lat_hu_A2     = - MIN(Q_lat_A2,0)
Q_soltr_A2      = QSOLTR_A2 / 3.6 / Area_A2
Q_surf_wall_A2  = -( QABSI_S40 - QCOMI_S40+QABSI_S41 - QCOMI_S41+QABSI_S42 - QCOMI_S42+QABSI_S43 - QCOMI_S43+QABSI_S44 - QCOMI_S44+QABSI_S45 - QCOMI_S45+QABSI_S46 - QCOMI_S46+QABSI_S47 - QCOMI_S47+QABSI_S48 - QCOMI_S48+QABSI_S49 - QCOMI_S49+QABSI_S50 - QCOMI_S50+QABSI_S51 - QCOMI_S51 ) / 3.6 / Area_A2
Q_surf_win_A2   = -( QABSI_S53 - QCOMI_S53+QABSI_S54 - QCOMI_S54+QABSI_S55 - QCOMI_S55+QABSI_S52 - QCOMI_S52 ) / 3.6 / Area_A2
Q_surf_floor_A2  = -( 0 ) / 3.6 / Area_A2
Q_surf_ceiling_A2   = -( 0 ) / 3.6 / Area_A2
Q_surf_roof_A2   = -( QABSI_S35 - QCOMI_S35+QABSI_S36 - QCOMI_S36+QABSI_S37 - QCOMI_S37+QABSI_S38 - QCOMI_S38 ) / 3.6 / Area_A2
Q_surf_A2       = Q_surf_wall_A2 + Q_surf_win_A2 + Q_surf_floor_A2 + Q_surf_ceiling_A2 + Q_surf_roof_A2
Q_solabs_wall_A2  = ( QSIAB_S40+QSIAB_S41+QSIAB_S42+QSIAB_S43+QSIAB_S44+QSIAB_S45+QSIAB_S46+QSIAB_S47+QSIAB_S48+QSIAB_S49+QSIAB_S50+QSIAB_S51 ) / 3.6 / Area_A2
Q_solabs_win_A2   = ( QSIAB_S53+QSIAB_S54+QSIAB_S55+QSIAB_S52 ) / 3.6 / Area_A2
Q_solabs_floor_A2  = ( 0 ) / 3.6 / Area_A2
Q_solabs_ceiling_A2   = ( 0 ) / 3.6 / Area_A2
Q_solabs_roof_A2   = ( QSIAB_S35+QSIAB_S36+QSIAB_S37+QSIAB_S38 ) / 3.6 / Area_A2
Q_solabs_A2       = Q_solabs_wall_A2 + Q_solabs_win_A2 + Q_solabs_floor_A2 + Q_solabs_ceiling_A2 + Q_solabs_roof_A2
Q_coup_A2       = QCOUP_A2 / 3.6 / Area_A2
Q_solair_A2     = QSOLAIR_A2 / 3.6 / Area_A2
Q_rad_A2        = QGRAD_A2 / 3.6 / Area_A2 - 0.5 * Q_thb_A2
Q_intgain_A2    = Q_conv_A2 + Q_rad_A2
Q_al_A2         = (0) / 3.6 / Area_A2
Q_al_cl_A2      = MAX(Q_al_A2,0)
Q_al_ht_A2      = - MIN(Q_al_A2,0)
Q_al_el_A2      = abs(0.01*Q_al_A2)
Q_alsrf_A2      = (0) / 3.6 / Area_A2
Q_dhw_A2        = ( Mfdhw_A2 * 1.16667 * Tdhw_diff_A2) / Area_A2
Q_ahu_sen_ht_A2 = 0
Q_ahu_sen_cl_A2 = 0
Q_ahu_lat_hu_A2 = 0
Q_ahu_lat_dh_A2 = 0
Q_ahu_sen_dh_cl_A2 = 0 
Q_ahu_dh_cl_A2 = Q_ahu_lat_dh_A2 + Q_ahu_sen_dh_cl_A2
Q_ahu_sen_dh_ht_A2 = 0 
Q_hrc_sen_cl_A2 = 0
Q_hrc_sen_ht_A2 = 0
Q_earthd_ht_A2  = MAX(mflow_sup_A2 * cpAir * (Tearthd_A2 - Tamb), 0) / Area_A2 / 3.6  ! W/m²
Q_earthd_cl_A2  = -MIN(mflow_sup_A2 * cpAir * (Tearthd_A2 - Tamb), 0) / Area_A2 / 3.6  ! W/m²
*Q_ahu_el_A2     = 1  * mflow_sup_A2 / rhoAir / Area_A2
Q_light_el_A2 = QELLIGHT_A2 / Area_A2 / 3.6
Q_equip_el_A2 = QELEQUIP_A2 / Area_A2 / 3.6
Q_misc_el_A2 = QELMISC_A2 / Area_A2 / 3.6
Q_heat_el_A2 = QELHEAT_A2 / Area_A2 / 3.6
Q_cool_el_A2 = QELCOOL_A2 / Area_A2 / 3.6
Q_vent_el_A2 = QELVENT_A2 / Area_A2 / 3.6
Q_ahu_el_A2     = Q_vent_el_A2
Q_tot_ht_A2     = Q_heat_A2 + Q_lat_hu_A2 + Q_al_ht_A2 + Q_dhw_A2 + Q_ahu_sen_ht_A2 + Q_ahu_lat_hu_A2 + Q_ahu_sen_dh_ht_A2
Q_tot_cl_A2     = Q_cool_A2 + Q_lat_dh_A2 + Q_al_cl_A2 + Q_ahu_sen_cl_A2 + Q_ahu_dh_cl_A2
Q_tot_el_A2     = Q_light_el_A2 + Q_equip_el_A2 + Q_misc_el_A2 + Q_ahu_el_A2 + Q_al_el_A2 + Q_heat_el_A2 + Q_cool_el_A2

*$UNIT_NAME Specific Power
*$LAYER Main
*$POSITION 530 130
*$UNIT_NUMBER 159

*------------------------------------------------------------------------------
* EQUATIONS "Zone"
* 
EQUATIONS 26
Ht_bui_A3            = 200.0 * 3.6 * Area_A3 * (LT(Tamb_m24,16.0))
 Cl_bui_A3           = 1000 * 3.6 * Area_A3 * (GT(Tamb_m24,12))
Area_A3              = 696.9
Totarea_A3           = 0.0
Vol_A3               = 2299.7
Tset_cl_A3	         = 26
Tset_ht_A3           = 20
Tset_cl_red_A3       = (gt(0,0)-1)*Min(-0,0) + Tset_cl_A3
Tset_ht_red_A3       = (gt(SCHED_HALL_LIGHT,0)-1)*Max( 3.0,0) + Tset_ht_A3
Tair_set_cl_A3       = (0 * (Tair_A3+2*(Tset_cl_red_A3 -0.2 - Top_A3)) + Not(0)*(Tset_cl_red_A3-0.2))
Tair_set_ht_A3       = (1 * (Tair_A3+2*(Tset_ht_red_A3 +0.2 - Top_A3)) + Not(1)*(Tset_ht_red_A3+0.2))
Tlair_A3             = [161,2]
Twb_A3         = TAIR_WB_A3
Tdp_A3         = TAIR_DP_A3
Tearthd_A3     = TAMB + 0/100 * (Tsoil-TAMB)
Tclo_A3              = 32
Abshuml_A3           = [161,6]
vflow_A3             = max(max(max(max(ACR_inf_A3,ACR_ahu_hv_A3),ACR_ahu_mv_A3),ACR_sv1_A3),ACR_sv2_A3)*(Vol_A3+0.0000001) / 4000 / 3600
ACR_tot_A3           = ACR_inf_A3 + ACR_ahu_hv_A3 + ACR_ahu_mv_A3 + ACR_sv1_A3 + ACR_sv2_A3
ACR_inf_A3           = max(0.0 * SCHED_ALLDAY, 0.5)
Y_inf_A3           = gt(ACR_inf_A3, 0.5)
X_A3           = ABSHUM_A3 * 1000
Rh_A3          = RELHUM_A3
CO2l_A3           = [161,8]
Gpers_A3 = CO2_ppers * Area_A3 / 1.38 * SCHED_HALL * 1 / Vol_A3 / 1000 * 1000000
CO2_A3 = (CO2l_A3 - CO2_amb - Gpers_A3 / ACR_tot_A3) * exp(-ACR_tot_A3*STEP) + CO2_amb + Gpers_A3 / ACR_tot_A3

*$UNIT_NAME Zone definitions
*$LAYER Main
*$POSITION 630 130
*$UNIT_NUMBER 180

*------------------------------------------------------------------------------
* EQUATIONS "Active Layer"
* 
EQUATIONS 8
Tsup_al_A3      = 0
Tsurf_al_A3     = 0
Tout_al_A3      = 0
Tcl_on_al_A3    = 2
Tcl_off_al_A3   = 0
Tht_on_al_A3    = - 0
Tht_off_al_A3   = - 2 
Tnode_al_A3     = 0

*$UNIT_NAME Active Layer
*$LAYER Main
*$POSITION 630 180
*$UNIT_NUMBER 181

*------------------------------------------------------------------------------
* EQUATIONS "MechanicalVentilation"
*
EQUATIONS 28
modeHTCL_A3    = 3
modeBP_A3      = 1
modeFP_A3      = modeBP_A3
Tin_hrc_A3     = gt(0,0) * Tearthd_A3 + not(gt(0,0)) * TAMB